Info: SIMULATION PARAMETERS:
Info: TIMESTEP               0.5
Info: NUMBER OF STEPS        2000
Info: STEPS PER CYCLE        20
Info: FIRST LDB TIMESTEP     100
Info: LAST LDB TIMESTEP     -1
Info: HOM BACKGROUND SCALING 1
Info: MIN ATOMS PER PATCH    40
Info: EMPTY PATCH LOAD       40 ATOMS
Info: INITIAL TEMPERATURE    300
Info: CENTER OF MASS MOVING INITIALLY? NO
Info: DIELECTRIC             1
Info: EXCLUDE                SCALED ONE-FOUR
Info: 1-4 ELECTROSTATICS SCALED BY 1
Info: MODIFIED 1-4 VDW PARAMETERS WILL BE USED
Info: NO DCD TRAJECTORY OUTPUT
Info: NO EXTENDED SYSTEM TRAJECTORY OUTPUT
Info: NO VELOCITY DCD OUTPUT
Info: NO FORCE DCD OUTPUT
Info: OUTPUT FILENAME        RFEP_decouple
Info: RESTART FILENAME       RFEP_decoupler
Info: RESTART FREQUENCY      20000
Info: BINARY RESTART FILES WILL BE USED
Info: SWITCHING ACTIVE
Info: SWITCHING ON           9
Info: SWITCHING OFF          11
Info: PAIRLIST DISTANCE      12
Info: PAIRLIST SHRINK RATE   0.01
Info: PAIRLIST GROW RATE     0.01
Info: PAIRLIST TRIGGER       0.3
Info: PAIRLISTS PER CYCLE    2
Info: PAIRLISTS ENABLED
Info: MARGIN                 1
Info: HYDROGEN GROUP CUTOFF  2.8
Info: PATCH DIMENSION        15.8
Info: ENERGY OUTPUT STEPS    200
Info: ENERGY EVALUATION STEPS    4
Info: OUTPUT ENERGY PRECISION 4
Info: CROSSTERM ENERGY INCLUDED IN DIHEDRAL
Info: TIMING OUTPUT STEPS    2000
Info: HARMONIC CONSTRAINTS ACTIVE
Info: HARMONIC CONS EXP      2
Info: COLLECTIVE VARIABLES CALCULATION REQUESTED
Info: LANGEVIN DYNAMICS ACTIVE
Info: LANGEVIN TEMPERATURE   300
Info: LANGEVIN USING BBK INTEGRATOR
Info: LANGEVIN DAMPING COEFFICIENT IS 5 INVERSE PS
Info: LANGEVIN DYNAMICS APPLIED TO HYDROGENS
Info: USING VERLET I (r-RESPA) MTS SCHEME.
Info: C1 SPLITTING OF LONG RANGE ELECTROSTATICS
Info: PLACING ATOMS IN PATCHES BY HYDROGEN GROUPS
Info: NONBONDED FORCES EVALUATED EVERY 2 STEPS
Info: RANDOM NUMBER SEED     87654321
Info: USE HYDROGEN BONDS?    NO
Info: COORDINATE PDB         beta-ideal.pdb
Info: STRUCTURE FILE         da.psf
Info: PARAMETER file: CHARMM format!
Info: PARAMETERS             ../toppar/par_all22_prot.inp
Info: USING ARITHMETIC MEAN TO COMBINE L-J SIGMA PARAMETERS
Info: SUMMARY OF PARAMETERS:
Info: 140 BONDS
Info: 356 ANGLES
Info: 459 DIHEDRAL
Info: 43 IMPROPER
Info: 6 CROSSTERM
Info: 95 VDW
Info: 0 VDW_PAIRS
Info: 0 NBTHOLE_PAIRS
Info: STRUCTURE SUMMARY:
Info: 104 ATOMS
Info: 103 BONDS
Info: 183 ANGLES
Info: 251 DIHEDRALS
Info: 22 IMPROPERS
Info: 0 CROSSTERMS
Info: 0 EXCLUSIONS
Info: 9 CONSTRAINTS
Info: 312 DEGREES OF FREEDOM
Info: 51 HYDROGEN GROUPS
Info: 4 ATOMS IN LARGEST HYDROGEN GROUP
Info: 51 MIGRATION GROUPS
Info: 4 ATOMS IN LARGEST MIGRATION GROUP
Info: TOTAL MASS = 727.821 amu
Info: TOTAL CHARGE = 6.70552e-08 e
Info: ADDED 536 IMPLICIT EXCLUSIONS
Info: NONBONDED TABLE R-SQUARED SPACING: 0.0625
Info: NONBONDED TABLE SIZE: 705 POINTS
Info: ORIGINAL ATOMS MINMAX IS -8.74 -6.092 -5.698  8.734 5.057 5.584
Info: ADJUSTED ATOMS MINMAX IS -7.50912 -5.17862 -5.17225  7.55213 4.56762 4.30025
Info: REMOVING COM VELOCITY 0.194743 1.2251 0.544614
TCL: Original numsteps 2000 will be ignored.
TCL: Running for 22000 steps
ETITLE: TS BOND ANGLE DIHED IMPRP ELECT VDW BOUNDARY MISC KINETIC TOTAL TEMP POTENTIAL TOTAL3 TEMPAVG
ENERGY: 0 38.0157 44.9576 30.5126 3.8101 84.6499 -9.2323 504.4578 0.0866 83.8839 781.1419 270.5917 697.2580 781.3366 270.5917
ENERGY: 4400 33.8224 62.8264 35.2739 7.0420 83.2589 -10.6206 2.7487 0.0000 105.3294 319.6812 339.7702 214.3518 319.9358 349.8886
ENERGY: 8800 23.5921 44.0778 41.6068 5.3311 78.2739 -10.5600 1.7258 0.0000 98.4778 282.5254 317.6684 184.0477 282.5254 297.9836
ENERGY: 13200 25.6431 46.5757 31.5335 5.0797 80.0528 -15.3130 4.4291 0.0126 85.7027 263.7163 276.4588 178.0135 263.8050 265.0485
ENERGY: 17600 35.7232 55.6001 34.0656 5.3176 81.2241 -16.8734 2.2077 0.0146 95.5539 292.8334 308.2366 197.2796 292.9358 305.7389
ENERGY: 22000 37.3176 52.5154 34.4378 6.2854 79.1898 -10.1441 3.6530 0.0000 90.3138 293.5686 291.3331 203.2548 293.3376 309.7512
